data_COTMTU

_cell_length_a                     9.880(2)
_cell_length_b                     12.690(3)
_cell_length_c                     14.130(3)
_cell_angle_alpha                  90
_cell_angle_beta                   92.99(3)
_cell_angle_gamma                  90
_cell_volume                       1769.2(6)

loop_
_space_group_symop_id
_space_group_symop_operation_xyz
1        +X,+Y,+Z
2        1/2-X,1/2+Y,1/2-Z
3        -X,-Y,-Z
4        1/2+X,1/2-Y,1/2+Z


loop_
_atom_site_label
_atom_site_fract_x
_atom_site_fract_y
_atom_site_fract_z
_atom_site_occupancy
_atom_site_symmetry_multiplicity
_atom_site_U_iso_or_equiv
CO(1)   0.776245       0.242943       0.51325        1    4    0.005
CL(1)   0.930669       0.188867       0.626753       1    4    0.008
CL(2)   0.852068       0.241653       0.365593       1    4    0.008
S(2)    0.717292       0.416565       0.555126       1    4    0.007
S(1)    0.58385        0.14003        0.531707       1    4    0.007
N(3)    0.74983        0.585887       0.447295       1    4    0.007
N(4)    0.619924       0.453406       0.37656        1    4    0.007
N(1)    0.584242       0.009899       0.678659       1    4    0.008
N(2)    0.73966       -0.031045       0.566973       1    4    0.007
C(2)    0.693993       0.48916        0.452064       1    4    0.006
C(5)    0.523593       0.367125       0.382871       1    4    0.009
C(7)    0.832797      -0.086658       0.633569       1    4    0.011
C(6)    0.85771        0.620329       0.514693       1    4    0.011
C(1)    0.641452       0.031943       0.596569       1    4    0.006
C(4)    0.511849       0.090774       0.729791       1    4    0.011
C(10)   0.684653       0.672021       0.39266        1    4    0.010
C(8)    0.563264      -0.098183       0.711382       1    4    0.011
C(9)    0.650556       0.481538       0.279511       1    4    0.010
C(3)    0.783367      -0.026965       0.470006       1    4    0.010
H(5A)   0.571527       0.294205       0.364604       1    4    0.013
H(5B)   0.437527       0.381133       0.33457        1    4    0.013
H(5C)   0.490313       0.362075       0.454107       1    4    0.013
H(7A)   0.819441      -0.058395       0.704344       1    4    0.017
H(7B)   0.935596      -0.072584       0.615018       1    4    0.017
H(7C)   0.811847      -0.169904       0.630324       1    4    0.017
H(6A)   0.81401        0.64974        0.577758       1    4    0.016
H(6B)   0.91543        0.681928       0.483262       1    4    0.016
H(6C)   0.923268       0.55476        0.532781       1    4    0.016
H(4A)   0.565214       0.164549       0.726153       1    4    0.016
H(4B)   0.506037       0.067706       0.802818       1    4    0.016
H(4C)   0.411023       0.099786       0.698052       1    4    0.016
H(10A)  0.74474        0.691502       0.333671       1    4    0.015
H(10B)  0.676289       0.740113       0.437475       1    4    0.015
H(10C)  0.585042       0.647717       0.366773       1    4    0.015
H(8A)   0.457057      -0.110895       0.720903       1    4    0.016
H(8B)   0.619644      -0.11036        0.777782       1    4    0.016
H(8C)   0.597673      -0.152889       0.659547       1    4    0.016
H(9A)   0.745448       0.52337        0.280184       1    4    0.015
H(9B)   0.571095       0.530977       0.249052       1    4    0.015
H(9C)   0.657805       0.410994       0.237702       1    4    0.015
H(3A)   0.860526       0.032408       0.464846       1    4    0.016
H(3B)   0.69817       -0.007787       0.422471       1    4    0.016
H(3C)   0.823732      -0.102463       0.451039       1    4    0.016


loop_
_geom_angle_atom_site_label_1
_geom_angle_atom_site_label_2
_geom_angle_atom_site_label_3
_geom_angle
_geom_angle_site_symmetry_1
_geom_angle_site_symmetry_2
_geom_angle_site_symmetry_3
_geom_angle_publ_flag
C(2)     N(3)      C(6)      121.79129499383   1_555    1_555    1_555    yes
C(2)     N(3)      C(10)     122.32325304223   1_555    1_555    1_555    yes
C(6)     N(3)      C(10)     113.94649491056   1_555    1_555    1_555    yes
C(2)     N(4)      C(5)      122.47065709498   1_555    1_555    1_555    yes
C(2)     N(4)      C(9)      122.13273141545   1_555    1_555    1_555    yes
C(5)     N(4)      C(9)      114.10258303752   1_555    1_555    1_555    yes
C(1)     N(1)      C(4)      121.18798862819   1_555    1_555    1_555    yes
C(1)     N(1)      C(8)      122.61894205963   1_555    1_555    1_555    yes
C(4)     N(1)      C(8)      114.82402666304   1_555    1_555    1_555    yes
C(7)     N(2)      C(1)      121.88112550037   1_555    1_555    1_555    yes
C(7)     N(2)      C(3)      114.4685748528    1_555    1_555    1_555    yes
C(1)     N(2)      C(3)      121.75456878073   1_555    1_555    1_555    yes
S(2)     C(2)      N(3)      119.35859898107   1_555    1_555    1_555    yes
S(2)     C(2)      N(4)      122.21960691751   1_555    1_555    1_555    yes
N(3)     C(2)      N(4)      118.41163423754   1_555    1_555    1_555    yes
N(4)     C(5)      H(5A)     109.52975527831   1_555    1_555    1_555    yes
N(4)     C(5)      H(5B)     109.50974276891   1_555    1_555    1_555    yes
N(4)     C(5)      H(5C)     109.52857492508   1_555    1_555    1_555    yes
H(5A)    C(5)      H(5B)     109.41809998607   1_555    1_555    1_555    yes
H(5A)    C(5)      H(5C)     109.41220502583   1_555    1_555    1_555    yes
H(5B)    C(5)      H(5C)     109.42880713995   1_555    1_555    1_555    yes
N(2)     C(7)      H(7A)     109.46425259641   1_555    1_555    1_555    yes
N(2)     C(7)      H(7B)     109.45023616334   1_555    1_555    1_555    yes
N(2)     C(7)      H(7C)     109.43689023996   1_555    1_555    1_555    yes
H(7A)    C(7)      H(7B)     109.48433664887   1_555    1_555    1_555    yes
H(7A)    C(7)      H(7C)     109.48704821062   1_555    1_555    1_555    yes
H(7B)    C(7)      H(7C)     109.50454520226   1_555    1_555    1_555    yes
N(3)     C(6)      H(6A)     109.46203426067   1_555    1_555    1_555    yes
N(3)     C(6)      H(6B)     109.43965465642   1_555    1_555    1_555    yes
N(3)     C(6)      H(6C)     109.47122861606   1_555    1_555    1_555    yes
H(6A)    C(6)      H(6B)     109.47651076653   1_555    1_555    1_555    yes
H(6A)    C(6)      H(6C)     109.47965218823   1_555    1_555    1_555    yes
H(6B)    C(6)      H(6C)     109.49823874444   1_555    1_555    1_555    yes
S(1)     C(1)      N(1)      118.69656937165   1_555    1_555    1_555    yes
S(1)     C(1)      N(2)      122.07615026394   1_555    1_555    1_555    yes
N(1)     C(1)      N(2)      119.22090509519   1_555    1_555    1_555    yes
N(1)     C(4)      H(4A)     109.4528472442    1_555    1_555    1_555    yes
N(1)     C(4)      H(4B)     109.53114829103   1_555    1_555    1_555    yes
N(1)     C(4)      H(4C)     109.52486552945   1_555    1_555    1_555    yes
H(4A)    C(4)      H(4B)     109.43276225487   1_555    1_555    1_555    yes
H(4A)    C(4)      H(4C)     109.40797466344   1_555    1_555    1_555    yes
H(4B)    C(4)      H(4C)     109.47762170566   1_555    1_555    1_555    yes
N(3)     C(10)     H(10A)    109.48965452435   1_555    1_555    1_555    yes
N(3)     C(10)     H(10B)    109.4696552522    1_555    1_555    1_555    yes
N(3)     C(10)     H(10C)    109.48163831569   1_555    1_555    1_555    yes
H(10A)   C(10)     H(10B)    109.46164710916   1_555    1_555    1_555    yes
H(10A)   C(10)     H(10C)    109.49401524641   1_555    1_555    1_555    yes
H(10B)   C(10)     H(10C)    109.4307017882    1_555    1_555    1_555    yes
N(1)     C(8)      H(8A)     109.53136230039   1_555    1_555    1_555    yes
N(1)     C(8)      H(8B)     109.50486060029   1_555    1_555    1_555    yes
N(1)     C(8)      H(8C)     109.50128276118   1_555    1_555    1_555    yes
H(8A)    C(8)      H(8B)     109.43313801475   1_555    1_555    1_555    yes
H(8A)    C(8)      H(8C)     109.42441860181   1_555    1_555    1_555    yes
H(8B)    C(8)      H(8C)     109.43217340176   1_555    1_555    1_555    yes
N(4)     C(9)      H(9A)     109.5331076355    1_555    1_555    1_555    yes
N(4)     C(9)      H(9B)     109.53615876868   1_555    1_555    1_555    yes
N(4)     C(9)      H(9C)     109.51504531544   1_555    1_555    1_555    yes
H(9A)    C(9)      H(9B)     109.41893878588   1_555    1_555    1_555    yes
H(9A)    C(9)      H(9C)     109.37641124493   1_555    1_555    1_555    yes
H(9B)    C(9)      H(9C)     109.44747897169   1_555    1_555    1_555    yes
N(2)     C(3)      H(3A)     109.49084727034   1_555    1_555    1_555    yes
N(2)     C(3)      H(3B)     109.49636306796   1_555    1_555    1_555    yes
N(2)     C(3)      H(3C)     109.49583395781   1_555    1_555    1_555    yes
H(3A)    C(3)      H(3B)     109.42935152951   1_555    1_555    1_555    yes
H(3A)    C(3)      H(3C)     109.44350954935   1_555    1_555    1_555    yes
H(3B)    C(3)      H(3C)     109.47139205341   1_555    1_555    1_555    yes
